5

C      -0.964831852126      -0.691462827481      -0.000000000062    
H      -0.782365337661      -1.372751578831       0.856342065276    
H      -1.767889039149      -1.109936546833      -0.640897047230    
H      -1.275127188280       0.303959353789       0.378974418443    
H      -0.033945843010      -0.587122537140      -0.594419436427    

